<?xml version="1.0" encoding="UTF-8"?>

<!-- generated on 2024-12-28 23:51:30 by Eclipse SUMO sumo Version 1.21.0
-->

<sumoConfiguration xmlns:xsi="http://www.w3.org/2001/XMLSchema-instance" xsi:noNamespaceSchemaLocation="http://sumo.dlr.de/xsd/sumoConfiguration.xsd">

    <input>
        <net-file value="test1.net.xml"/>
        <route-files value="test1.rou.xml"/>
        <additional-files value="test1.add.xml"/>
    </input>

</sumoConfiguration>
