<?xml version="1.0" encoding="UTF-8"?>

<!-- generated on 2024-12-28 23:51:30 by Eclipse SUMO netedit Version 1.21.0 -->

<routes xmlns:xsi="http://www.w3.org/2001/XMLSchema-instance" xsi:noNamespaceSchemaLocation="http://sumo.dlr.de/xsd/routes_file.xsd">
    <!-- Vehicles, persons and containers (sorted by depart) -->

    <!-- Highway flow (3 lanes, 2400 vehicles per hour) -->
    <flow id="f_0" begin="0.00" from="E0" to="E1" end="3600.00" number="2400"/>

    <!-- Ramp flow (500 vehicles per hour) -->
    <flow id="f_1" begin="0.00" from="E2" to="E1" end="3600.00" number="200"/>
</routes>
